data_cif

_audit_creation_method             'generated by GULP'

_symmetry_space_group_name_H-M     '(unknown)       '
_symmetry_Int_Tables_number        1

loop_
_symmetry_equiv_pos_site_id
_symmetry_equiv_pos_as_xyz
_cell_length_a                       30.5468
_cell_length_b                       17.9205
_cell_length_c                       10.0090
_cell_angle_alpha                   90.3146
_cell_angle_beta                    90.0784
_cell_angle_gamma                   90.0065

loop_
_atom_site_label
_atom_site_fract_x
_atom_site_fract_y
_atom_site_fract_z
_atom_site_occupancy
  Na          0.84243      0.65049      0.72679  1.0000
  Na          0.50448      0.49389      0.72575  1.0000
  Na          0.33403      0.67258      0.47308  1.0000
  Na          0.34161      0.30992      0.49584  1.0000
  Na          0.33627      0.49250      0.48149  1.0000
  Na          0.84214      0.83742      0.71493  1.0000
  Na          0.00677      0.98975      0.98170  1.0000
  Na          0.34253      0.49672      0.97339  1.0000
  Na          0.66927      0.99243      0.47949  1.0000
  Na          0.17460      0.32369      0.24503  1.0000
  Na          0.34946      0.84851      0.48454  1.0000
  Na          0.18265      0.84953      0.72044  1.0000
  Na          0.17182      0.82133      0.22784  1.0000
  Na          0.83701      0.99197      0.23110  1.0000
  Na          0.98854      0.37023      0.95714  1.0000
  Na          0.18257      0.64127      0.71263  1.0000
  Na          0.84346      0.65140      0.22023  1.0000
  Na          0.67683      0.50787      0.97795  1.0000
  Na          0.67709      0.17438      0.48336  1.0000
  Na          0.67805      0.31497      0.97732  1.0000
  Na          0.99829      0.14244      0.48541  1.0000
  Na          0.32576      0.02854      0.46999  1.0000
  Na          0.01505      0.63256      0.98137  1.0000
  Na          0.82191      0.02971      0.73433  1.0000
  Na          0.00271      0.81811      0.97416  1.0000
  Na          0.00627      0.16961      0.98269  1.0000
  Na          0.17061      0.33603      0.72200  1.0000
  Na          0.82747      0.46065      0.73570  1.0000
  Na          0.50342      0.32889      0.72447  1.0000
  Na          0.50244      0.66322      0.72787  1.0000
  Na          0.66282      0.81007      0.97732  1.0000
  Na          0.50551      0.99254      0.72483  1.0000
  Na          0.67331      0.49079      0.47683  1.0000
  Na          0.16694      0.14619      0.74144  1.0000
  Na          0.01067      0.83639      0.46942  1.0000
  Na          0.50160      0.15880      0.72873  1.0000
  Na          0.51236      0.50895      0.21981  1.0000
  Na          0.49954      0.82809      0.72443  1.0000
  Na          0.99835      0.34842      0.48359  1.0000
  Na          0.50840      0.32165      0.22324  1.0000
  Mn          0.07783      0.91156      0.72810  1.0000
  Mn          0.43597      0.74560      0.46599  1.0000
  Mn          0.60410      0.41094      0.72180  1.0000
  Mn          0.43461      0.41061      0.47285  1.0000
  Mn          0.26329      0.08355      0.23675  1.0000
  Mn          0.93151      0.41169      0.72259  1.0000
  Mn          0.90952      0.91315      0.47124  1.0000
  Mn          0.07881      0.90961      0.22793  1.0000
  Mn          0.60312      0.41197      0.22595  1.0000
  Mn          0.07791      0.57550      0.71568  1.0000
  Mn          0.59681      0.07913      0.22512  1.0000
  Mn          0.24328      0.57519      0.46945  1.0000
  Mn          0.60058      0.07389      0.74154  1.0000
  Mn          0.24313      0.91954      0.97973  1.0000
  Mn          0.40826      0.58022      0.72968  1.0000
  Mn          0.93107      0.07473      0.73176  1.0000
  Mn          0.93093      0.08239      0.22687  1.0000
  Mn          0.10364      0.74155      0.47517  1.0000
  Mn          0.27040      0.74946      0.73219  1.0000
  Mn          0.57746      0.58233      0.97481  1.0000
  Mn          0.26718      0.41060      0.73393  1.0000
  Mn          0.74401      0.57722      0.71905  1.0000
  Mn          0.90700      0.24341      0.98583  1.0000
  Mn          0.10201      0.41437      0.47281  1.0000
  Mn          0.59904      0.74526      0.22696  1.0000
  Mn          0.76609      0.07323      0.46692  1.0000
  Mn          0.76837      0.40913      0.98186  1.0000
  Mn          0.26704      0.74602      0.21786  1.0000
  Mn          0.40912      0.24635      0.73239  1.0000
  Mn          0.43444      0.41025      0.98239  1.0000
  Mn          0.91069      0.57394      0.97728  1.0000
  Mn          0.41225      0.58067      0.22544  1.0000
  Mn          0.57659      0.91115      0.47497  1.0000
  Mn          0.24301      0.23059      0.49228  1.0000
  Mn          0.76908      0.40290      0.46864  1.0000
  Mn          0.41091      0.91463      0.22509  1.0000
  Mn          0.93624      0.74050      0.22867  1.0000
  Mn          0.74536      0.57607      0.23117  1.0000
  Mn          0.40771      0.91700      0.73763  1.0000
  Mn          0.10199      0.07297      0.47969  1.0000
  Fe          0.57856      0.58144      0.47315  1.0000
  Fe          0.10371      0.74752      0.96415  1.0000
  Fe          0.73781      0.91155      0.72052  1.0000
  Fe          0.93571      0.73802      0.72329  1.0000
  Fe          0.90585      0.91371      0.97716  1.0000
  Fe          0.43446      0.07641      0.47081  1.0000
  Fe          0.40819      0.24443      0.21934  1.0000
  Fe          0.74528      0.24386      0.22255  1.0000
  Fe          0.76749      0.73595      0.97139  1.0000
  Fe          0.74615      0.24204      0.71618  1.0000
  Fe          0.26940      0.41008      0.22978  1.0000
  Fe          0.24274      0.57868      0.97955  1.0000
  Fe          0.93171      0.41548      0.22538  1.0000
  Fe          0.43108      0.07687      0.98403  1.0000
  Fe          0.10101      0.41773      0.98092  1.0000
  Fe          0.07541      0.24592      0.23697  1.0000
  Fe          0.27058      0.08611      0.75933  1.0000
  Fe          0.76330      0.09942      0.99365  1.0000
  Fe          0.76817      0.73454      0.47067  1.0000
  Fe          0.57661      0.24351      0.47664  1.0000
  Fe          0.60185      0.74156      0.71417  1.0000
  Fe          0.73928      0.91306      0.20981  1.0000
  Fe          0.10074      0.07527      0.98754  1.0000
  Fe          0.24694      0.24557      0.99043  1.0000
  Fe          0.24339      0.90904      0.46898  1.0000
  Fe          0.57218      0.91860      0.99332  1.0000
  Fe          0.08065      0.57638      0.23409  1.0000
  Fe          0.07301      0.24649      0.73385  1.0000
  Fe          0.90561      0.23914      0.48790  1.0000
  Fe          0.57769      0.24005      0.98034  1.0000
  Fe          0.43190      0.74575      0.98365  1.0000
  Fe          0.91437      0.56968      0.47429  1.0000
  P           0.04109      0.08162      0.21074  1.0000
  P           0.96605      0.90589      0.74968  1.0000
  P           0.13557      0.90983      0.45270  1.0000
  P           0.20662      0.08693      0.01074  1.0000
  P           0.96487      0.24330      0.75458  1.0000
  P           0.13042      0.24109      0.46311  1.0000
  P           0.04352      0.07898      0.71925  1.0000
  P           0.96548      0.91223      0.24077  1.0000
  P           0.13515      0.91285      0.96005  1.0000
  P           0.21089      0.07606      0.51774  1.0000
  P           0.96743      0.24873      0.25676  1.0000
  P           0.13267      0.24880      0.96409  1.0000
  P           0.04033      0.40909      0.20691  1.0000
  P           0.96795      0.57522      0.74479  1.0000
  P           0.13677      0.57791      0.44426  1.0000
  P           0.20684      0.41083      0.00319  1.0000
  P           0.04474      0.73974      0.19746  1.0000
  P           0.20799      0.74304      0.99006  1.0000
  P           0.04460      0.40961      0.71257  1.0000
  P           0.97153      0.57545      0.25347  1.0000
  P           0.13427      0.57647      0.95934  1.0000
  P           0.21325      0.40646      0.49831  1.0000
  P           0.04364      0.74314      0.70114  1.0000
  P           0.21218      0.74493      0.49673  1.0000
  P           0.37459      0.08157      0.20585  1.0000
  P           0.63331      0.90883      0.75461  1.0000
  P           0.79709      0.90123      0.45194  1.0000
  P           0.53752      0.08163      0.00165  1.0000
  P           0.63491      0.24123      0.75136  1.0000
  P           0.80119      0.23760      0.44276  1.0000
  P           0.37804      0.08215      0.70221  1.0000
  P           0.63338      0.91186      0.24779  1.0000
  P           0.79826      0.90418      0.94972  1.0000
  P           0.54199      0.08165      0.50023  1.0000
  P           0.63489      0.24498      0.25334  1.0000
  P           0.79987      0.24330      0.94293  1.0000
  P           0.37500      0.40919      0.20737  1.0000
  P           0.63442      0.57861      0.74242  1.0000
  P           0.80631      0.57151      0.45685  1.0000
  P           0.54518      0.40794      0.99314  1.0000
  P           0.37549      0.74582      0.19700  1.0000
  P           0.54368      0.74960      0.98643  1.0000
  P           0.37787      0.41299      0.70275  1.0000
  P           0.63529      0.57984      0.25314  1.0000
  P           0.80141      0.57636      0.95298  1.0000
  P           0.54405      0.40959      0.49360  1.0000
  P           0.38060      0.74652      0.70319  1.0000
  P           0.54290      0.74554      0.49688  1.0000
  P           0.70401      0.07716      0.20580  1.0000
  P           0.29799      0.91836      0.74405  1.0000
  P           0.46687      0.91405      0.46093  1.0000
  P           0.87042      0.07642      0.99734  1.0000
  P           0.30266      0.24811      0.77011  1.0000
  P           0.46911      0.24061      0.45128  1.0000
  P           0.71065      0.07791      0.71453  1.0000
  P           0.30081      0.91521      0.25058  1.0000
  P           0.46884      0.91370      0.96508  1.0000
  P           0.87448      0.07375      0.49999  1.0000
  P           0.30286      0.24693      0.25427  1.0000
  P           0.46866      0.24293      0.95992  1.0000
  P           0.71015      0.40866      0.20488  1.0000
  P           0.29873      0.57992      0.75512  1.0000
  P           0.47029      0.57688      0.45512  1.0000
  P           0.87660      0.41164      0.00689  1.0000
  P           0.71113      0.74344      0.20409  1.0000
  P           0.87626      0.74634      0.99133  1.0000
  P           0.71202      0.40595      0.70344  1.0000
  P           0.30126      0.57592      0.24247  1.0000
  P           0.46881      0.57858      0.95517  1.0000
  P           0.87715      0.40594      0.48663  1.0000
  P           0.71026      0.74611      0.70155  1.0000
  P           0.87642      0.73989      0.49760  1.0000
  O           0.04578      0.07985      0.35798  1.0000
  O           0.96136      0.91125      0.60236  1.0000
  O           0.12966      0.90773      0.60133  1.0000
  O           0.21658      0.08633      0.86289  1.0000
  O           0.95943      0.24013      0.60259  1.0000
  O           0.12266      0.24390      0.61502  1.0000
  O           0.05020      0.08193      0.87289  1.0000
  O           0.95678      0.90825      0.08754  1.0000
  O           0.13097      0.90399      0.10716  1.0000
  O           0.22230      0.11235      0.38843  1.0000
  O           0.96154      0.23677      0.11020  1.0000
  O           0.12454      0.25307      0.11216  1.0000
  O           0.04625      0.40705      0.35385  1.0000
  O           0.96012      0.57765      0.59616  1.0000
  O           0.12989      0.57938      0.59288  1.0000
  O           0.21134      0.40573      0.85621  1.0000
  O           0.05049      0.75615      0.34178  1.0000
  O           0.21075      0.74462      0.84040  1.0000
  O           0.05251      0.40601      0.86348  1.0000
  O           0.96187      0.58159      0.10788  1.0000
  O           0.12597      0.56730      0.10510  1.0000
  O           0.22058      0.40139      0.34652  1.0000
  O           0.05089      0.74220      0.85433  1.0000
  O           0.21538      0.74903      0.34807  1.0000
  O           0.38514      0.08018      0.35419  1.0000
  O           0.62763      0.92635      0.61043  1.0000
  O           0.78864      0.91512      0.60065  1.0000
  O           0.54378      0.07927      0.85170  1.0000
  O           0.62614      0.23892      0.60298  1.0000
  O           0.79270      0.23965      0.59041  1.0000
  O           0.38840      0.07313      0.84778  1.0000
  O           0.62533      0.90966      0.09783  1.0000
  O           0.79131      0.91489      0.09755  1.0000
  O           0.54702      0.08258      0.35433  1.0000
  O           0.62697      0.24241      0.10434  1.0000
  O           0.78519      0.21699      0.08093  1.0000
  O           0.37813      0.40891      0.35746  1.0000
  O           0.62677      0.56892      0.59293  1.0000
  O           0.80103      0.57330      0.60632  1.0000
  O           0.54856      0.40686      0.84249  1.0000
  O           0.38118      0.74569      0.34765  1.0000
  O           0.55215      0.74453      0.83448  1.0000
  O           0.38473      0.41799      0.85028  1.0000
  O           0.62821      0.57463      0.10556  1.0000
  O           0.79572      0.58636      0.09984  1.0000
  O           0.54713      0.40789      0.34373  1.0000
  O           0.38825      0.74186      0.85147  1.0000
  O           0.54756      0.74774      0.35142  1.0000
  O           0.70971      0.07739      0.35580  1.0000
  O           0.29262      0.92112      0.59106  1.0000
  O           0.46107      0.92042      0.61237  1.0000
  O           0.87723      0.07459      0.85024  1.0000
  O           0.29410      0.24609      0.62323  1.0000
  O           0.46446      0.24674      0.60032  1.0000
  O           0.72144      0.07268      0.85989  1.0000
  O           0.29347      0.91228      0.10522  1.0000
  O           0.46708      0.91721      0.11151  1.0000
  O           0.88125      0.06168      0.35344  1.0000
  O           0.29544      0.24772      0.10584  1.0000
  O           0.46189      0.24970      0.10841  1.0000
  O           0.71415      0.41138      0.35312  1.0000
  O           0.29449      0.57573      0.60524  1.0000
  O           0.46543      0.57466      0.60520  1.0000
  O           0.88408      0.42237      0.86010  1.0000
  O           0.72075      0.73491      0.34956  1.0000
  O           0.88230      0.74264      0.83898  1.0000
  O           0.71489      0.40765      0.85419  1.0000
  O           0.29298      0.56903      0.09335  1.0000
  O           0.46612      0.57354      0.10374  1.0000
  O           0.88240      0.41000      0.33877  1.0000
  O           0.71756      0.74443      0.85153  1.0000
  O           0.88142      0.73762      0.35041  1.0000
  O           0.15713      0.09631      0.02569  1.0000
  O           0.84638      0.90890      0.90942  1.0000
  O           0.01422      0.91362      0.25457  1.0000
  O           0.32707      0.08206      0.18486  1.0000
  O           0.84692      0.25066      0.92053  1.0000
  O           0.01522      0.24417      0.30265  1.0000
  O           0.16298      0.07760      0.55285  1.0000
  O           0.84481      0.90649      0.42486  1.0000
  O           0.01237      0.90895      0.80198  1.0000
  O           0.32914      0.09023      0.67819  1.0000
  O           0.84955      0.23649      0.41344  1.0000
  O           0.01351      0.24677      0.79483  1.0000
  O           0.15885      0.40537      0.04764  1.0000
  O           0.84821      0.57277      0.90594  1.0000
  O           0.01953      0.57264      0.28207  1.0000
  O           0.32775      0.41154      0.15772  1.0000
  O           0.15953      0.74133      0.03434  1.0000
  O           0.32858      0.74224      0.16156  1.0000
  O           0.16464      0.40653      0.52480  1.0000
  O           0.85460      0.57796      0.41796  1.0000
  O           0.01517      0.57690      0.78333  1.0000
  O           0.32994      0.40758      0.66206  1.0000
  O           0.16596      0.74095      0.55165  1.0000
  O           0.33264      0.74898      0.66277  1.0000
  O           0.49062      0.08634      0.04107  1.0000
  O           0.51659      0.91434      0.90686  1.0000
  O           0.68309      0.91837      0.27551  1.0000
  O           0.65881      0.07621      0.15759  1.0000
  O           0.51741      0.24104      0.91748  1.0000
  O           0.68379      0.24398      0.28195  1.0000
  O           0.49398      0.08221      0.55093  1.0000
  O           0.51445      0.90405      0.43502  1.0000
  O           0.68167      0.91079      0.79699  1.0000
  O           0.66355      0.07797      0.67413  1.0000
  O           0.51740      0.24750      0.41164  1.0000
  O           0.68402      0.23640      0.77617  1.0000
  O           0.49868      0.40761      0.04362  1.0000
  O           0.51577      0.57694      0.90218  1.0000
  O           0.68282      0.57571      0.29053  1.0000
  O           0.66411      0.40460      0.15010  1.0000
  O           0.49515      0.75488      0.00033  1.0000
  O           0.66412      0.74171      0.16680  1.0000
  O           0.49777      0.40766      0.54649  1.0000
  O           0.52011      0.57495      0.42219  1.0000
  O           0.68219      0.57997      0.77541  1.0000
  O           0.66569      0.40871      0.65462  1.0000
  O           0.49726      0.74362      0.55338  1.0000
  O           0.66319      0.74082      0.66586  1.0000
  O           0.82122      0.06848      0.02879  1.0000
  O           0.18031      0.92102      0.90717  1.0000
  O           0.34784      0.92145      0.29732  1.0000
  O           0.99443      0.08254      0.15929  1.0000
  O           0.17987      0.24782      0.92234  1.0000
  O           0.35163      0.24642      0.29258  1.0000
  O           0.82689      0.08164      0.53566  1.0000
  O           0.18362      0.90886      0.41097  1.0000
  O           0.34516      0.91303      0.77279  1.0000
  O           0.99541      0.07573      0.69215  1.0000
  O           0.17801      0.24304      0.43910  1.0000
  O           0.34941      0.25141      0.80669  1.0000
  O           0.82978      0.40000      0.03881  1.0000
  O           0.18199      0.57649      0.91899  1.0000
  O           0.34848      0.57621      0.28468  1.0000
  O           0.99239      0.41184      0.16396  1.0000
  O           0.82807      0.74334      0.02581  1.0000
  O           0.99749      0.73674      0.15012  1.0000
  O           0.83137      0.40254      0.53699  1.0000
  O           0.18315      0.57856      0.40527  1.0000
  O           0.34578      0.57945      0.79599  1.0000
  O           0.99620      0.40832      0.68768  1.0000
  O           0.82851      0.74317      0.54598  1.0000
  O           0.99429      0.74925      0.67536  1.0000
  O           0.06664      0.02110      0.13038  1.0000
  O           0.93920      0.96623      0.83156  1.0000
  O           0.11031      0.97332      0.38547  1.0000
  O           0.22580      0.02212      0.08561  1.0000
  O           0.94467      0.17769      0.82921  1.0000
  O           0.06496      0.15022      0.14092  1.0000
  O           0.22832      0.15523      0.08039  1.0000
  O           0.10292      0.18017      0.39402  1.0000
  O           0.06952      0.01849      0.65058  1.0000
  O           0.94073      0.97608      0.30596  1.0000
  O           0.10438      0.97641      0.90760  1.0000
  O           0.23423      0.00450      0.55443  1.0000
  O           0.94220      0.18866      0.33997  1.0000
  O           0.06357      0.14896      0.65193  1.0000
  O           0.23408      0.13156      0.62269  1.0000
  O           0.10603      0.18527      0.89136  1.0000
  O           0.06206      0.34133      0.13343  1.0000
  O           0.94504      0.64516      0.81502  1.0000
  O           0.10984      0.64086      0.37234  1.0000
  O           0.23068      0.34579      0.08268  1.0000
  O           0.94262      0.51448      0.81646  1.0000
  O           0.06852      0.79924      0.10820  1.0000
  O           0.22899      0.80793      0.06518  1.0000
  O           0.10971      0.51381      0.37298  1.0000
  O           0.06461      0.33926      0.64146  1.0000
  O           0.94551      0.63514      0.33412  1.0000
  O           0.11086      0.64251      0.88931  1.0000
  O           0.23317      0.34064      0.57604  1.0000
  O           0.94696      0.50788      0.32345  1.0000
  O           0.06383      0.81032      0.63155  1.0000
  O           0.23474      0.81470      0.56520  1.0000
  O           0.11069      0.51127      0.88535  1.0000
  O           0.06784      0.66985      0.13660  1.0000
  O           0.94132      0.30872      0.81960  1.0000
  O           0.10746      0.30554      0.38110  1.0000
  O           0.23198      0.67645      0.05528  1.0000
  O           0.94118      0.83798      0.81340  1.0000
  O           0.06660      0.47089      0.13248  1.0000
  O           0.23219      0.47487      0.07049  1.0000
  O           0.11313      0.84372      0.37894  1.0000
  O           0.06647      0.67927      0.63313  1.0000
  O           0.94662      0.31851      0.31926  1.0000
  O           0.10898      0.31316      0.88689  1.0000
  O           0.23958      0.68327      0.56300  1.0000
  O           0.94605      0.84572      0.31763  1.0000
  O           0.06973      0.46894      0.63946  1.0000
  O           0.23811      0.47144      0.56161  1.0000
  O           0.11210      0.84652      0.88124  1.0000
  O           0.40011      0.02110      0.12649  1.0000
  O           0.60608      0.96460      0.83991  1.0000
  O           0.77234      0.96140      0.36523  1.0000
  O           0.56219      0.01628      0.06948  1.0000
  O           0.60908      0.18119      0.82929  1.0000
  O           0.40029      0.14797      0.13536  1.0000
  O           0.56462      0.14587      0.06664  1.0000
  O           0.77504      0.17569      0.36899  1.0000
  O           0.39639      0.01753      0.61557  1.0000
  O           0.61267      0.97784      0.32213  1.0000
  O           0.77335      0.96115      0.86369  1.0000
  O           0.56581      0.01947      0.57699  1.0000
  O           0.61364      0.18090      0.33509  1.0000
  O           0.40485      0.14389      0.63298  1.0000
  O           0.56361      0.15116      0.57237  1.0000
  O           0.77811      0.17646      0.85822  1.0000
  O           0.40137      0.34323      0.14478  1.0000
  O           0.60956      0.64642      0.80110  1.0000
  O           0.78420      0.64117      0.38724  1.0000
  O           0.56892      0.33896      0.05881  1.0000
  O           0.61244      0.51600      0.82244  1.0000
  O           0.40156      0.80980      0.12749  1.0000
  O           0.56926      0.81607      0.04906  1.0000
  O           0.78128      0.51095      0.38564  1.0000
  O           0.40299      0.34762      0.63393  1.0000
  O           0.60933      0.64253      0.32378  1.0000
  O           0.77975      0.64442      0.87502  1.0000
  O           0.56831      0.34212      0.56245  1.0000
  O           0.61091      0.51502      0.33132  1.0000
  O           0.40484      0.81197      0.63775  1.0000
  O           0.56955      0.80530      0.57895  1.0000
  O           0.77520      0.51351      0.88603  1.0000
  O           0.40318      0.68266      0.12774  1.0000
  O           0.61511      0.30768      0.82860  1.0000
  O           0.77850      0.30180      0.36577  1.0000
  O           0.56627      0.68738      0.06190  1.0000
  O           0.61461      0.83551      0.80808  1.0000
  O           0.39935      0.47262      0.13709  1.0000
  O           0.57031      0.47103      0.06291  1.0000
  O           0.77467      0.83240      0.39404  1.0000
  O           0.40137      0.68043      0.62584  1.0000
  O           0.60975      0.30765      0.32459  1.0000
  O           0.77177      0.30462      0.87959  1.0000
  O           0.56823      0.67722      0.56845  1.0000
  O           0.61406      0.84637      0.32080  1.0000
  O           0.39884      0.47834      0.62485  1.0000
  O           0.56906      0.47418      0.56194  1.0000
  O           0.77838      0.83330      0.88713  1.0000
  O           0.73566      0.01837      0.13822  1.0000
  O           0.27619      0.98692      0.81571  1.0000
  O           0.44643      0.98307      0.38944  1.0000
  O           0.89230      0.00765      0.06837  1.0000
  O           0.27818      0.18146      0.84598  1.0000
  O           0.72994      0.14499      0.13971  1.0000
  O           0.89380      0.13827      0.07247  1.0000
  O           0.44579      0.17392      0.38650  1.0000
  O           0.73294      0.01093      0.63678  1.0000
  O           0.27383      0.97743      0.32687  1.0000
  O           0.44699      0.98115      0.89115  1.0000
  O           0.89468      0.01108      0.58472  1.0000
  O           0.27972      0.18579      0.32959  1.0000
  O           0.73379      0.14137      0.63599  1.0000
  O           0.90295      0.13974      0.55724  1.0000
  O           0.44588      0.17579      0.89280  1.0000
  O           0.73486      0.33959      0.13822  1.0000
  O           0.27016      0.64157      0.81939  1.0000
  O           0.44735      0.64080      0.38651  1.0000
  O           0.90795      0.35109      0.06893  1.0000
  O           0.27489      0.51538      0.83503  1.0000
  O           0.73229      0.81410      0.13340  1.0000
  O           0.89883      0.81497      0.05205  1.0000
  O           0.45058      0.51061      0.37780  1.0000
  O           0.73652      0.33785      0.63992  1.0000
  O           0.27717      0.63914      0.31283  1.0000
  O           0.44624      0.64779      0.89198  1.0000
  O           0.90485      0.34174      0.55084  1.0000
  O           0.27981      0.50686      0.31437  1.0000
  O           0.73319      0.81464      0.63833  1.0000
  O           0.90106      0.80294      0.57359  1.0000
  O           0.44436      0.51522      0.88176  1.0000
  O           0.73881      0.68557      0.12349  1.0000
  O           0.27361      0.30758      0.84343  1.0000
  O           0.44449      0.30147      0.36988  1.0000
  O           0.89975      0.68400      0.06653  1.0000
  O           0.26904      0.85865      0.80680  1.0000
  O           0.73385      0.47221      0.13212  1.0000
  O           0.89886      0.47641      0.08854  1.0000
  O           0.43811      0.85446      0.39613  1.0000
  O           0.73885      0.68698      0.62673  1.0000
  O           0.28328      0.31729      0.32219  1.0000
  O           0.44893      0.30708      0.88028  1.0000
  O           0.89958      0.67448      0.57411  1.0000
  O           0.27857      0.84918      0.32914  1.0000
  O           0.73887      0.46790      0.63457  1.0000
  O           0.90048      0.47246      0.56023  1.0000
  O           0.44523      0.84937      0.89215  1.0000
